      97
 i =        1, E =      -630.1313616463
  B         7.4728189350       14.4817459150        1.6671884959
  B        14.9911128887        1.4719053221        1.6671982047
  B        13.7373381339        3.6391077773        1.6674399651
  B        12.4894218909        5.8111081411        1.6675796522
  B        11.2417612289        7.9781550683        1.6672735201
  B         9.9813672667       10.1467520157        1.6670995312
  B         8.7256997593       12.3127860354        1.6674190999
  B        -7.5469948497       14.4850077453        1.6672029870
  B        -0.0344974746        1.4780934263        1.6671972741
  B        -1.2878817409        3.6404399547        1.6673034918
  B        -2.5390151540        5.8067036187        1.6671776586
  B        -3.7857663936        7.9756581417        1.6673583785
  B        -5.0404735195       10.1461704145        1.6671816592
  B        -6.2929739370       12.3147310766        1.6672430455
  B        -5.0405383476       14.4839715953        1.6672183704
  B         2.4706937204        1.4775943736        1.6673218748
  B         1.2188715666        3.6578015056        1.6675064886
  B        -0.0349937309        5.8153149080        1.6672425626
  B        -1.2877437718        7.9734421743        1.6671894066
  B        -2.5376516111       10.1442536379        1.6674569336
  B        -3.7854834363       12.3133339223        1.6675095738
  B        -2.5364485639       14.4834069131        1.6674607077
  B         4.9739699100        1.4729970638        1.6673179035
  B         3.7248667469        3.6451704574        1.6675921504
  B         2.4824344957        5.8623275290        1.6674836371
  B         1.2206240334        7.9900403317        1.6673855379
  B        -0.0433329520       10.1519916121        1.6675632593
  B        -1.2832899544       12.3169115636        1.6677179936
  B        -0.0292088344       14.4823895472        1.6674786596
  B         7.4825151410        1.4662019389        1.6675934873
  B         6.2395571089        3.6295460744        1.6674638220
  B         4.9973012018        5.7903235775        1.6672177402
  B         2.4618100510       10.1396155730        1.6673395575
  B         1.2210759547       12.3203307368        1.6673266675
  B         2.4726298977       14.4870981628        1.6671479221
  B         9.9833557935        1.4691370573        1.6675381181
  B         8.7359709544        3.6323520649        1.6676951134
  B         7.4972592472        5.7989492655        1.6671813878
  B         6.2536813358        7.9685869565        1.6672954847
  B         4.9344125840       10.1098789585        1.6675932572
  B         3.7167914582       12.3147069528        1.6673731559
  B         4.9737553366       14.4862918501        1.6674098110
  B        12.4876632653        1.4741138864        1.6674510352
  B        11.2358316121        3.6400766121        1.6677603857
  B         9.9927703905        5.8098929278        1.6677264198
  B         8.7461788991        7.9721744867        1.6673738613
  B         7.4763659889       10.1424938301        1.6675840577
  B         6.2113983898       12.3064682284        1.6676257807
  N         8.7297974428       13.7617863366        1.6663164728
  N        16.2432972267        0.7489980185        1.6662917775
  N        14.9854723706        2.9150127890        1.6661009107
  N        13.7336923890        5.0818010903        1.6661781231
  N        12.4891396689        7.2555789171        1.6661490181
  N        11.2350724992        9.4239260805        1.6662084505
  N         9.9836584925       11.5931054725        1.6661858467
  N        -6.2930553826       13.7613179500        1.6662981336
  N         1.2180398766        0.7502855348        1.6663025211
  N        -0.0339085407        2.9196729376        1.6662080966
  N        -1.2945441824        5.0800947091        1.6660950542
  N        -2.5452424920        7.2503701647        1.6661024819
  N        -3.7936747497        9.4217027671        1.6661722903
  N        -5.0405942988       11.5929683530        1.6661774865
  N        -3.7895420032       13.7605884630        1.6663667919
  N         3.7226305889        0.7482350466        1.6662979280
  N         2.4689843600        2.9165857246        1.6660344078
  N         1.2155015157        5.0903501241        1.6660747427
  N        -0.0557436245        7.2548156242        1.6660496083
  N        -1.3002571113        9.4215335493        1.6660103239
  N        -2.5379323495       11.5927732820        1.6662026170
  N        -1.2858043253       13.7661884107        1.6663008391
  N         6.2267066602        0.7490086678        1.6663508810
  N         4.9829976968        2.9137469918        1.6660019619
  N         3.7369800582        5.0819585373        1.6660126561
  N         2.3853097134        7.2484388954        1.6663155754
  N         1.1833433817        9.4442149382        1.6657658718
  N        -0.0391726150       11.6057899556        1.6660769566
  N         1.2193854051       13.7712168473        1.6663204083
  N         8.7323276302        0.7477183692        1.6663352435
  N         7.4887637335        2.9049022246        1.6663508251
  N         6.2547786783        5.0595145051        1.6661569430
  N         5.0525902118        7.2098273679        1.6659807045
  N         3.6857646654        9.5002621980        1.6662907395
  N         2.4598910682       11.6132753989        1.6662080503
  N         3.7238381287       13.7731401032        1.6662298739
  N        11.2368085958        0.7563508597        1.6662312754
  N         9.9888934087        2.9134157558        1.6662701028
  N         8.7507761156        5.0754023507        1.6662897478
  N         7.5151526384        7.2447342699        1.6660489107
  N         6.2379440571        9.4141373539        1.6658505657
  N         4.9689704396       11.5933053925        1.6661098388
  N         6.2243833168       13.7605728151        1.6662512273
  N        13.7383648689        0.7551642587        1.6660376386
  N        12.4850525329        2.9184439841        1.6660194538
  N        11.2413010335        5.0834794460        1.6662166849
  N         9.9985826596        7.2537391549        1.6661287600
  N         8.7380744576        9.4175431773        1.6659627198
  N         7.4781987870       11.5942226394        1.6660333614
      97
 i =        2, E =      -630.1323696990
  B         7.4737703975       14.4825490254        1.6662661222
  B        14.9883568430        1.4731784613        1.6661063221
  B        13.7389459569        3.6393367541        1.6660629502
  B        12.4908818880        5.8075672216        1.6661674514
  B        11.2437537082        7.9773313559        1.6661585368
  B         9.9822953677       10.1461322392        1.6660755554
  B         8.7237905183       12.3115304741        1.6661787653
  B        -7.5474643419       14.4851320091        1.6663141064
  B        -0.0345297908        1.4768595165        1.6662708422
  B        -1.2861416188        3.6428676543        1.6661636373
  B        -2.5369294490        5.8078572454        1.6661213708
  B        -3.7882273808        7.9763783102        1.6661747555
  B        -5.0405499928       10.1464115332        1.6661863733
  B        -6.2947558787       12.3148906498        1.6662473748
  B        -5.0414694929       14.4853862536        1.6663060800
  B         2.4707002463        1.4798847643        1.6661736296
  B         1.2200204383        3.6575055474        1.6660915447
  B        -0.0323869625        5.8179035238        1.6660668599
  B        -1.2920639291        7.9775295717        1.6660259752
  B        -2.5382945956       10.1455636422        1.6660994862
  B        -3.7880107168       12.3147038705        1.6662715307
  B        -2.5367527400       14.4834647813        1.6663254530
  B         4.9748394035        1.4723893558        1.6661495887
  B         3.7257904639        3.6517904657        1.6659742242
  B         2.4814945946        5.8714117725        1.6663327598
  B         1.2160409544        7.9889158010        1.6662157160
  B        -0.0398227302       10.1509224592        1.6659307464
  B        -1.2853613515       12.3170856685        1.6662090439
  B        -0.0310286187       14.4842894516        1.6663350938
  B         7.4842320244        1.4647645431        1.6663542401
  B         6.2408745322        3.6218124160        1.6661715704
  B         5.0075806013        5.7849486446        1.6660135503
  B         2.4610920762       10.1445348082        1.6662235613
  B         1.2158417130       12.3223615842        1.6661820081
  B         2.4726642510       14.4844808720        1.6662173859
  B         9.9871000123        1.4695774388        1.6662471269
  B         8.7391216567        3.6318235899        1.6663087805
  B         7.4986119186        5.7980274102        1.6661224947
  B         6.2635797255        7.9623345799        1.6659571158
  B         4.9260605356       10.1067943712        1.6663139240
  B         3.7163442122       12.3107992157        1.6661805209
  B         4.9720452003       14.4832682665        1.6661901472
  B        12.4879175979        1.4722782720        1.6660499491
  B        11.2393070029        3.6381326451        1.6661474739
  B         9.9940486600        5.8070080059        1.6662419780
  B         8.7535309615        7.9753743296        1.6660568378
  B         7.4703089574       10.1383374151        1.6659029360
  B         6.2128233283       12.3059840479        1.6661233643
  N         8.7298080895       13.7605484647        1.6673454533
  N        16.2408308415        0.7504901886        1.6673013448
  N        14.9875826868        2.9162888411        1.6674764258
  N        13.7366048576        5.0818759390        1.6675438223
  N        12.4890093534        7.2523234384        1.6674353328
  N        11.2356721101        9.4232549989        1.6673334490
  N         9.9820180557       11.5919151368        1.6673444874
  N        -6.2933852852       13.7615570358        1.6672911134
  N         1.2191723087        0.7506078013        1.6673220653
  N        -0.0338515276        2.9187577978        1.6673916345
  N        -1.2921430355        5.0822027124        1.6673415490
  N        -2.5482747578        7.2516107306        1.6673179696
  N        -3.7941712941        9.4227215765        1.6673686416
  N        -5.0425698604       11.5930910185        1.6673422168
  N        -3.7905629913       13.7621542089        1.6674659980
  N         3.7226718155        0.7501463270        1.6674679325
  N         2.4731795171        2.9192630066        1.6676061800
  N         1.2171849190        5.0900427141        1.6674239878
  N        -0.0627337337        7.2568641961        1.6673507636
  N        -1.3005236347        9.4262596816        1.6675232359
  N        -2.5410938130       11.5943327045        1.6676141250
  N        -1.2869824756       13.7663533730        1.6675852434
  N         6.2274999940        0.7488426295        1.6675541240
  N         4.9801783728        2.9134277307        1.6675434220
  N         3.7423663019        5.0897325338        1.6674105576
  N         2.3832435866        7.2558857126        1.6670646806
  N         1.1845208742        9.4440726211        1.6672102901
  N        -0.0434806695       11.6051821132        1.6675471670
  N         1.2167604651       13.7733640407        1.6674334084
  N         8.7350635738        0.7494737453        1.6675573123
  N         7.4922984598        2.9032376407        1.6676146456
  N         6.2589088574        5.0516993725        1.6674621454
  N         5.0528399005        7.2096715353        1.6669942589
  N         3.6787073857        9.4986814387        1.6670679491
  N         2.4549435496       11.6186675068        1.6674069819
  N         3.7229265199       13.7694627869        1.6674922409
  N        11.2378864100        0.7533597468        1.6675797413
  N         9.9909955695        2.9137446844        1.6677742153
  N         8.7495614546        5.0753990822        1.6676704054
  N         7.5241282180        7.2449522535        1.6674037335
  N         6.2333334595        9.4055267765        1.6676172007
  N         4.9709500206       11.5924074192        1.6675476426
  N         6.2250424420       13.7613010765        1.6674647336
  N        13.7379332822        0.7522861738        1.6675313769
  N        12.4880339445        2.9165071218        1.6677425240
  N        11.2417545932        5.0816539267        1.6677666280
  N        10.0015779751        7.2512670525        1.6674811530
  N         8.7364030403        9.4206932971        1.6675795845
  N         7.4781540686       11.5890727465        1.6676228766
      97
 i =        3, E =      -630.1842531535
  B         7.4735459152       14.4816873208        1.6682817534
  B        14.9891429465        1.4727666659        1.6685437704
  B        13.7411821466        3.6389642014        1.6688293528
  B        12.4929585962        5.8057322261        1.6687124420
  B        11.2455853213        7.9764733029        1.6684514286
  B         9.9817025763       10.1453294914        1.6685530317
  B         8.7225204694       12.3102298446        1.6684459391
  B        -7.5486982029       14.4858416803        1.6681281677
  B        -0.0339114479        1.4777118448        1.6682163140
  B        -1.2849204685        3.6448428381        1.6684156316
  B        -2.5355836020        5.8086816960        1.6684519878
  B        -3.7892506174        7.9778872482        1.6683266425
  B        -5.0420486124       10.1464102769        1.6683007846
  B        -6.2965905560       12.3155192269        1.6681898717
  B        -5.0431689507       14.4866913757        1.6683046953
  B         2.4710235432        1.4816892166        1.6685134306
  B         1.2215447209        3.6590344109        1.6685508442
  B        -0.0301175062        5.8192130128        1.6684260050
  B        -1.2948610482        7.9803690029        1.6684969616
  B        -2.5394841471       10.1477835536        1.6686171842
  B        -3.7915816852       12.3167695543        1.6684246793
  B        -2.5378793926       14.4849778703        1.6685261408
  B         4.9751157065        1.4734171349        1.6686585345
  B         3.7265803453        3.6560060242        1.6687714372
  B         2.4823850770        5.8802263318        1.6678990872
  B         1.2118625994        7.9891846691        1.6678236062
  B        -0.0388972510       10.1507348653        1.6685623701
  B        -1.2875485372       12.3175325930        1.6686659513
  B        -0.0329301407       14.4843940796        1.6684866374
  B         7.4858332443        1.4637211547        1.6685613709
  B         6.2437353921        3.6165060805        1.6686625982
  B         5.0143817415        5.7798494529        1.6683837987
  B         2.4591765203       10.1481788951        1.6678437652
  B         1.2123742384       12.3234539308        1.6684909541
  B         2.4725257570       14.4828805798        1.6685724728
  B         9.9895040892        1.4684403780        1.6687413880
  B         8.7436321925        3.6311894644        1.6688060629
  B         7.5005934468        5.7969635854        1.6686476711
  B         6.2713629528        7.9597119446        1.6685074991
  B         4.9188320475       10.1018989397        1.6681124404
  B         3.7166766738       12.3086102027        1.6685361919
  B         4.9713072716       14.4814035293        1.6685610749
  B        12.4891977278        1.4704822333        1.6688870601
  B        11.2427153248        3.6357822438        1.6690469547
  B         9.9968844407        5.8031413452        1.6687655501
  B         8.7596667280        7.9755564870        1.6686718010
  B         7.4674285666       10.1357227079        1.6690191997
  B         6.2125153121       12.3039238071        1.6686604595
  N         8.7291914121       13.7593811823        1.6651544478
  N        16.2413998401        0.7501934066        1.6650594554
  N        14.9895779679        2.9160414888        1.6645164244
  N        13.7388392413        5.0815375023        1.6646118209
  N        12.4899686346        7.2508926225        1.6649223342
  N        11.2348837310        9.4226853967        1.6648676751
  N         9.9808977914       11.5907625669        1.6648257645
  N        -6.2948440887       13.7622643286        1.6652369726
  N         1.2197337329        0.7516748791        1.6650631242
  N        -0.0332284807        2.9199443377        1.6649743954
  N        -1.2904579239        5.0841237424        1.6648808060
  N        -2.5501254579        7.2526787308        1.6648713857
  N        -3.7952820200        9.4247274629        1.6649672113
  N        -5.0450968434       11.5931281484        1.6650963904
  N        -3.7921228433       13.7643504987        1.6650545367
  N         3.7229357536        0.7516744009        1.6644806273
  N         2.4758172173        2.9214534857        1.6643176198
  N         1.2199971110        5.0916293291        1.6650118787
  N        -0.0674640517        7.2576723797        1.6649654441
  N        -1.3021898153        9.4296406143        1.6645278234
  N        -2.5451281541       11.5970641784        1.6648391946
  N        -1.2896317492       13.7667091935        1.6650524616
  N         6.2274838787        0.7499430083        1.6648296223
  N         4.9792918302        2.9144020241        1.6643146129
  N         3.7460161833        5.0942950212        1.6650307123
  N         2.3824375986        7.2634719952        1.6659720332
  N         1.1839509550        9.4447443746        1.6650924985
  N        -0.0470709975       11.6054969159        1.6647646593
  N         1.2148612748       13.7743702605        1.6649627141
  N         8.7365751786        0.7492551880        1.6650426239
  N         7.4968729965        2.9019846070        1.6649581076
  N         6.2622601300        5.0466908943        1.6646323567
  N         5.0559079188        7.2080579679        1.6652452214
  N         3.6719080027        9.4955819543        1.6659873927
  N         2.4523106580       11.6224919377        1.6650592644
  N         3.7223506058       13.7674896200        1.6646712441
  N        11.2391379559        0.7515040184        1.6642861277
  N         9.9936708193        2.9124268458        1.6643152655
  N         8.7495795404        5.0751962238        1.6646263062
  N         7.5300270835        7.2448953720        1.6646235546
  N         6.2314919026        9.4010661174        1.6646770301
  N         4.9713776571       11.5893353601        1.6649391594
  N         6.2246359019       13.7601924325        1.6649497030
  N        13.7391145362        0.7508512279        1.6642794602
  N        12.4910251272        2.9147413476        1.6638667066
  N        11.2441589353        5.0793905867        1.6645132741
  N        10.0050665497        7.2478192491        1.6648331036
  N         8.7352957323        9.4209294369        1.6640425550
  N         7.4778080472       11.5856776525        1.6643073212
