      97
 i =        1, E =      -630.1301308816
  B         7.4774270153       14.4855594849        1.6666858207
  B        14.9867676422        1.4743949999        1.6666257983
  B        13.7378491351        3.6414822535        1.6666717800
  B        12.4869195568        5.8059588632        1.6667110525
  B        11.2411013177        7.9771392876        1.6665727003
  B         9.9802333062       10.1450447346        1.6665941839
  B         8.7261105438       12.3125068584        1.6666287613
  B        -7.5459117896       14.4844570446        1.6666356758
  B        -0.0352503518        1.4726993491        1.6665922644
  B        -1.2863359981        3.6432629594        1.6664465998
  B        -2.5349108530        5.8093743523        1.6664757920
  B        -3.7898073461        7.9779250449        1.6664581362
  B        -5.0398515707       10.1441474515        1.6665366796
  B        -6.2934680923       12.3140460275        1.6665166775
  B        -5.0399553347       14.4851357967        1.6667389353
  B         2.4710404549        1.4778154994        1.6667193901
  B         1.2171488228        3.6444866530        1.6666765546
  B        -0.0255345040        5.8106054602        1.6665213862
  B        -1.2903675846        7.9785695114        1.6665217210
  B        -2.5315821730       10.1444489832        1.6667142466
  B        -3.7870241210       12.3142996972        1.6666485743
  B        -2.5344275992       14.4840547776        1.6668313598
  B         4.9749417014        1.4748113503        1.6668248951
  B         3.7205897716        3.6595875475        1.6666187552
  B         2.4755604404        5.8583406203        1.6664479579
  B         1.2189431818        7.9784566196        1.6663470690
  B        -0.0238205781       10.1413555222        1.6666020059
  B        -1.2808805482       12.3117863969        1.6667126754
  B        -0.0333327568       14.4845991914        1.6666798677
  B         7.4830358979        1.4672027737        1.6667768699
  B         6.2323107669        3.6193696469        1.6666495266
  B         4.9938138776        5.7988079048        1.6663218097
  B         2.4700451502       10.1466658157        1.6664913175
  B         1.2156967884       12.3199805199        1.6666713959
  B         2.4723094228       14.4821477468        1.6667121084
  B         9.9863826870        1.4739414068        1.6668530165
  B         8.7333717095        3.6423091763        1.6668376751
  B         7.4767912106        5.8108824729        1.6666826719
  B         6.2446915168        7.9663904530        1.6662454204
  B         4.9336395197       10.1178391817        1.6663846225
  B         3.7259506904       12.3088616179        1.6666683839
  B         4.9722318028       14.4836030116        1.6665432434
  B        12.4857240278        1.4724611698        1.6666995612
  B        11.2366764573        3.6397876091        1.6668783732
  B         9.9826198346        5.8069604057        1.6666448303
  B         8.7516548396        7.9839753741        1.6664734713
  B         7.4603316230       10.1387234010        1.6665865278
  B         6.2226653476       12.3150620915        1.6667280682
  N         8.7314410657       13.7613663850        1.6670294029
  N        16.2387822224        0.7520063130        1.6667944425
  N        14.9867577724        2.9182694408        1.6670192212
  N        13.7373905913        5.0848373276        1.6670889228
  N        12.4882251482        7.2505906143        1.6671031714
  N        11.2351562685        9.4233350980        1.6667396543
  N         9.9835006217       11.5922846246        1.6669781848
  N        -6.2919595160       13.7609099281        1.6669494770
  N         1.2192319286        0.7492621167        1.6669932586
  N        -0.0381984798        2.9134547922        1.6670766876
  N        -1.2889621632        5.0840382200        1.6668017574
  N        -2.5470348051        7.2534034643        1.6668632635
  N        -3.7892030482        9.4244220767        1.6670578075
  N        -5.0409103856       11.5915367364        1.6669765971
  N        -3.7883823616       13.7616138617        1.6671608841
  N         3.7231306529        0.7492858460        1.6670134510
  N         2.4730187940        2.9164425319        1.6672324645
  N         1.2188851764        5.0765826191        1.6671927343
  N        -0.0617738986        7.2504638111        1.6668961144
  N        -1.2887645454        9.4266004387        1.6670737909
  N        -2.5385810884       11.5929448027        1.6673372837
  N        -1.2860089870       13.7610514783        1.6672929419
  N         6.2273520962        0.7494755836        1.6671421090
  N         4.9686686333        2.9146285680        1.6671717570
  N         3.7282874610        5.0941701665        1.6671567521
  N         2.3934123465        7.2467309866        1.6670076962
  N         1.2063921394        9.4304649421        1.6671739088
  N        -0.0378335085       11.5942945594        1.6672825453
  N         1.2157526517       13.7712225556        1.6669355009
  N         8.7360530953        0.7509021684        1.6672543144
  N         7.4911270830        2.9067349736        1.6673302249
  N         6.2488285261        5.0493939082        1.6668811242
  N         5.0510290701        7.2105693321        1.6666343036
  N         3.6903128680        9.4938276629        1.6669451834
  N         2.4609803336       11.6203195298        1.6669947394
  N         3.7232554643       13.7663348457        1.6669700577
  N        11.2358023867        0.7516929647        1.6670796901
  N         9.9861255031        2.9188989793        1.6674411412
  N         8.7330251514        5.0853761042        1.6672197779
  N         7.5214200869        7.2550999984        1.6669242444
  N         6.2215168130        9.4143919901        1.6672036770
  N         4.9832522038       11.5974235625        1.6673243304
  N         6.2280394536       13.7678125300        1.6671403904
  N        13.7361218716        0.7525852300        1.6670790198
  N        12.4869276416        2.9173769215        1.6672782709
  N        11.2352008126        5.0833696357        1.6674639479
  N         9.9981554408        7.2505838651        1.6671256779
  N         8.7296609865        9.4302839797        1.6669923153
  N         7.4807993298       11.5908852851        1.6672822983
