      97
 i =        1, E =      -630.1854947458
  B         7.4737068778       14.4819350401        1.6681052251
  B        14.9893371937        1.4727210294        1.6683271081
  B        13.7404434744        3.6391509950        1.6686081454
  B        12.4920527201        5.8065205174        1.6685308192
  B        11.2447517630        7.9767507942        1.6682584449
  B         9.9815245419       10.1455023339        1.6683168845
  B         8.7232302577       12.3107396688        1.6682796601
  B        -7.5482840344       14.4856425898        1.6679751941
  B        -0.0340684135        1.4774482113        1.6680458864
  B        -1.2854492873        3.6441280859        1.6682234122
  B        -2.5360313772        5.8084629756        1.6682361103
  B        -3.7887860575        7.9776148054        1.6681597079
  B        -5.0417160957       10.1462086548        1.6681121579
  B        -6.2958788137       12.3153193209        1.6680278403
  B        -5.0426045936       14.4862090560        1.6681312144
  B         2.4709890690        1.4808384754        1.6683265968
  B         1.2208605756        3.6578232183        1.6683892265
  B        -0.0304461413        5.8180024658        1.6682320027
  B        -1.2935417312        7.9792604741        1.6682856127
  B        -2.5386814502       10.1470974411        1.6684368042
  B        -3.7904707681       12.3161546002        1.6682719648
  B        -2.5374601653       14.4847380286        1.6683561995
  B         4.9749354011        1.4734912581        1.6684523644
  B         3.7259142846        3.6547462065        1.6685842473
  B         2.4819161507        5.8762243396        1.6678198562
  B         1.2135538592        7.9885483956        1.6677395348
  B        -0.0384667172       10.1502459485        1.6684136654
  B        -1.2865006012       12.3170364271        1.6685127576
  B        -0.0324657248       14.4840904167        1.6683179593
  B         7.4851829347        1.4643070185        1.6684044991
  B         6.2423822694        3.6185196917        1.6684690196
  B         5.0104520389        5.7826381044        1.6681819251
  B         2.4602861523       10.1468984488        1.6677586934
  B         1.2138433030       12.3227655623        1.6683046745
  B         2.4725068766       14.4834319229        1.6683421634
  B         9.9884072186        1.4688974182        1.6685531706
  B         8.7418903977        3.6321387532        1.6686279642
  B         7.4984220147        5.7982448644        1.6684139172
  B         6.2669735955        7.9615320240        1.6682948356
  B         4.9220199968       10.1040985440        1.6680101444
  B         3.7174106895       12.3095055736        1.6683490131
  B         4.9717225112       14.4822614955        1.6683660372
  B        12.4887682262        1.4711115246        1.6686602828
  B        11.2413608550        3.6366342077        1.6688499671
  B         9.9953497538        5.8043072289        1.6685904378
  B         8.7572494545        7.9756381745        1.6684553972
  B         7.4682102925       10.1368926602        1.6687871691
  B         6.2130773479       12.3050649543        1.6685006292
  N         8.7294236747       13.7598511040        1.6653525176
  N        16.2415512149        0.7501147923        1.6652553343
  N        14.9888152749        2.9160209120        1.6647829952
  N        13.7380169866        5.0818005164        1.6648769974
  N        12.4897629321        7.2515485408        1.6651330221
  N        11.2348989940        9.4229003062        1.6650792789
  N         9.9814752395       11.5911954048        1.6650560829
  N        -6.2944236254       13.7620493318        1.6654144114
  N         1.2194543004        0.7513288404        1.6652738667
  N        -0.0336915027        2.9194828554        1.6651867899
  N        -1.2909357273        5.0835760255        1.6650745313
  N        -2.5492176888        7.2524190886        1.6650725242
  N        -3.7946361373        9.4243244815        1.6651752837
  N        -5.0442061159       11.5929871903        1.6652775474
  N        -3.7915203844       13.7636674292        1.6652803071
  N         3.7229119503        0.7510225290        1.6647855244
  N         2.4746505131        2.9204117691        1.6646171563
  N         1.2193314862        5.0903728163        1.6652028234
  N        -0.0654064435        7.2567162019        1.6651439472
  N        -1.3009993775        9.4282849888        1.6647788636
  N        -2.5437221909       11.5962273211        1.6650789324
  N        -1.2888899877       13.7662283973        1.6652711843
  N         6.2273539947        0.7498119888        1.6650879422
  N         4.9790652417        2.9143474015        1.6646092095
  N         3.7434589256        5.0925222347        1.6652064218
  N         2.3836558252        7.2602320755        1.6660396238
  N         1.1854556793        9.4436545456        1.6652301141
  N        -0.0453117008       11.6047565798        1.6649986074
  N         1.2155488735       13.7736888593        1.6651817755
  N         8.7359359833        0.7491129150        1.6652663251
  N         7.4953972140        2.9027121415        1.6652012212
  N         6.2602484164        5.0486619676        1.6648782928
  N         5.0551737487        7.2084425320        1.6653561237
  N         3.6751179716        9.4960445308        1.6660433309
  N         2.4540413367       11.6210534872        1.6652505024
  N         3.7226141124       13.7682255690        1.6649274841
  N        11.2385837832        0.7522074154        1.6646152620
  N         9.9925067594        2.9129880730        1.6646608142
  N         8.7485680898        5.0759604043        1.6649083879
  N         7.5273354498        7.2456293528        1.6648594786
  N         6.2317268391        9.4039257261        1.6648803040
  N         4.9719042209       11.5904252039        1.6651510189
  N         6.2248191042       13.7607745493        1.6651739678
  N        13.7388424563        0.7516005446        1.6645788478
  N        12.4899343822        2.9154293299        1.6642396578
  N        11.2431819427        5.0802075681        1.6648165783
  N        10.0037274338        7.2487951485        1.6650547474
  N         8.7352939240        9.4210858110        1.6643640384
  N         7.4780747609       11.5872633397        1.6646116005
