      97
 i =        2, E =      -630.1323696990
  B         7.4737703975       14.4825490254        1.6662661222
  B        14.9883568430        1.4731784613        1.6661063221
  B        13.7389459569        3.6393367541        1.6660629502
  B        12.4908818880        5.8075672216        1.6661674514
  B        11.2437537082        7.9773313559        1.6661585368
  B         9.9822953677       10.1461322392        1.6660755554
  B         8.7237905183       12.3115304741        1.6661787653
  B        -7.5474643419       14.4851320091        1.6663141064
  B        -0.0345297908        1.4768595165        1.6662708422
  B        -1.2861416188        3.6428676543        1.6661636373
  B        -2.5369294490        5.8078572454        1.6661213708
  B        -3.7882273808        7.9763783102        1.6661747555
  B        -5.0405499928       10.1464115332        1.6661863733
  B        -6.2947558787       12.3148906498        1.6662473748
  B        -5.0414694929       14.4853862536        1.6663060800
  B         2.4707002463        1.4798847643        1.6661736296
  B         1.2200204383        3.6575055474        1.6660915447
  B        -0.0323869625        5.8179035238        1.6660668599
  B        -1.2920639291        7.9775295717        1.6660259752
  B        -2.5382945956       10.1455636422        1.6660994862
  B        -3.7880107168       12.3147038705        1.6662715307
  B        -2.5367527400       14.4834647813        1.6663254530
  B         4.9748394035        1.4723893558        1.6661495887
  B         3.7257904639        3.6517904657        1.6659742242
  B         2.4814945946        5.8714117725        1.6663327598
  B         1.2160409544        7.9889158010        1.6662157160
  B        -0.0398227302       10.1509224592        1.6659307464
  B        -1.2853613515       12.3170856685        1.6662090439
  B        -0.0310286187       14.4842894516        1.6663350938
  B         7.4842320244        1.4647645431        1.6663542401
  B         6.2408745322        3.6218124160        1.6661715704
  B         5.0075806013        5.7849486446        1.6660135503
  B         2.4610920762       10.1445348082        1.6662235613
  B         1.2158417130       12.3223615842        1.6661820081
  B         2.4726642510       14.4844808720        1.6662173859
  B         9.9871000123        1.4695774388        1.6662471269
  B         8.7391216567        3.6318235899        1.6663087805
  B         7.4986119186        5.7980274102        1.6661224947
  B         6.2635797255        7.9623345799        1.6659571158
  B         4.9260605356       10.1067943712        1.6663139240
  B         3.7163442122       12.3107992157        1.6661805209
  B         4.9720452003       14.4832682665        1.6661901472
  B        12.4879175979        1.4722782720        1.6660499491
  B        11.2393070029        3.6381326451        1.6661474739
  B         9.9940486600        5.8070080059        1.6662419780
  B         8.7535309615        7.9753743296        1.6660568378
  B         7.4703089574       10.1383374151        1.6659029360
  B         6.2128233283       12.3059840479        1.6661233643
  N         8.7298080895       13.7605484647        1.6673454533
  N        16.2408308415        0.7504901886        1.6673013448
  N        14.9875826868        2.9162888411        1.6674764258
  N        13.7366048576        5.0818759390        1.6675438223
  N        12.4890093534        7.2523234384        1.6674353328
  N        11.2356721101        9.4232549989        1.6673334490
  N         9.9820180557       11.5919151368        1.6673444874
  N        -6.2933852852       13.7615570358        1.6672911134
  N         1.2191723087        0.7506078013        1.6673220653
  N        -0.0338515276        2.9187577978        1.6673916345
  N        -1.2921430355        5.0822027124        1.6673415490
  N        -2.5482747578        7.2516107306        1.6673179696
  N        -3.7941712941        9.4227215765        1.6673686416
  N        -5.0425698604       11.5930910185        1.6673422168
  N        -3.7905629913       13.7621542089        1.6674659980
  N         3.7226718155        0.7501463270        1.6674679325
  N         2.4731795171        2.9192630066        1.6676061800
  N         1.2171849190        5.0900427141        1.6674239878
  N        -0.0627337337        7.2568641961        1.6673507636
  N        -1.3005236347        9.4262596816        1.6675232359
  N        -2.5410938130       11.5943327045        1.6676141250
  N        -1.2869824756       13.7663533730        1.6675852434
  N         6.2274999940        0.7488426295        1.6675541240
  N         4.9801783728        2.9134277307        1.6675434220
  N         3.7423663019        5.0897325338        1.6674105576
  N         2.3832435866        7.2558857126        1.6670646806
  N         1.1845208742        9.4440726211        1.6672102901
  N        -0.0434806695       11.6051821132        1.6675471670
  N         1.2167604651       13.7733640407        1.6674334084
  N         8.7350635738        0.7494737453        1.6675573123
  N         7.4922984598        2.9032376407        1.6676146456
  N         6.2589088574        5.0516993725        1.6674621454
  N         5.0528399005        7.2096715353        1.6669942589
  N         3.6787073857        9.4986814387        1.6670679491
  N         2.4549435496       11.6186675068        1.6674069819
  N         3.7229265199       13.7694627869        1.6674922409
  N        11.2378864100        0.7533597468        1.6675797413
  N         9.9909955695        2.9137446844        1.6677742153
  N         8.7495614546        5.0753990822        1.6676704054
  N         7.5241282180        7.2449522535        1.6674037335
  N         6.2333334595        9.4055267765        1.6676172007
  N         4.9709500206       11.5924074192        1.6675476426
  N         6.2250424420       13.7613010765        1.6674647336
  N        13.7379332822        0.7522861738        1.6675313769
  N        12.4880339445        2.9165071218        1.6677425240
  N        11.2417545932        5.0816539267        1.6677666280
  N        10.0015779751        7.2512670525        1.6674811530
  N         8.7364030403        9.4206932971        1.6675795845
  N         7.4781540686       11.5890727465        1.6676228766
