      97
 i =        1, E =      -630.1932536784
  B         7.4766719819       14.4843596429        1.6666856933
  B        14.9890154473        1.4731069966        1.6666258014
  B        13.7381802650        3.6402338814        1.6666757762
  B        12.4869158716        5.8078592597        1.6667101211
  B        11.2338774474        7.9760677319        1.6665757570
  B         9.9792551780       10.1438946144        1.6665959786
  B         8.7272323949       12.3137932911        1.6666272034
  B        -7.5467102364       14.4849506552        1.6666324614
  B        -0.0345805843        1.4739878516        1.6665920225
  B        -1.2861415809        3.6418979060        1.6664447273
  B        -2.5364176292        5.8083930659        1.6664751393
  B        -3.7881406035        7.9759630416        1.6664619951
  B        -5.0411941368       10.1444036215        1.6665373909
  B        -6.2946962337       12.3146049850        1.6665188401
  B        -5.0410356752       14.4859322519        1.6667366242
  B         2.4704974424        1.4762005674        1.6667190927
  B         1.2185091547        3.6438215297        1.6666707531
  B        -0.0302540772        5.8113916709        1.6665212588
  B        -1.2818961533        7.9759499344        1.6665217500
  B        -2.5334036403       10.1438014646        1.6667147693
  B        -3.7875641380       12.3145969102        1.6666544590
  B        -2.5353424812       14.4850581859        1.6668322076
  B         4.9754550928        1.4762735867        1.6668274840
  B         3.7230203378        3.6467146550        1.6666181314
  B         2.4820222786        5.8208674601        1.6664789850
  B         1.2360921278        7.9806182015        1.6663536294
  B        -0.0263793001       10.1428750252        1.6666046766
  B        -1.2812605472       12.3136651957        1.6667136762
  B        -0.0308302170       14.4841393420        1.6666816723
  B         7.4803219686        1.4739470859        1.6667789306
  B         6.2273318112        3.6437930832        1.6666339523
  B         4.9641193487        5.8208207090        1.6664258471
  B         2.4767944497       10.1307079595        1.6664947053
  B         1.2222391628       12.3139860467        1.6666696243
  B         2.4723914504       14.4839910848        1.6667125168
  B         9.9847205725        1.4729758512        1.6668553928
  B         8.7318219807        3.6418554530        1.6668386500
  B         7.4760728466        5.8113541630        1.6666887709
  B         6.2102670850        7.9808016835        1.6663226103
  B         4.9695297052       10.1309325404        1.6664194677
  B         3.7229126275       12.3125090454        1.6666692603
  B         4.9735034191       14.4841434239        1.6665417651
  B        12.4869902663        1.4728421794        1.6667054407
  B        11.2356933879        3.6403147381        1.6668793759
  B         9.9822743042        5.8085329703        1.6666435210
  B         8.7278647682        7.9760786114        1.6664590148
  B         7.4727322344       10.1430544991        1.6665907911
  B         6.2239017552       12.3142474523        1.6667223194
  N         8.7307544428       13.7623281684        1.6670307425
  N        16.2405628077        0.7509905798        1.6667954586
  N        14.9875796194        2.9170753218        1.6670205116
  N        13.7370472528        5.0840041794        1.6670900332
  N        12.4867645535        7.2532388237        1.6670951366
  N        11.2352884844        9.4229596784        1.6667404023
  N         9.9834372009       11.5923739319        1.6669778623
  N        -6.2929644171       13.7615089508        1.6669538383
  N         1.2180540304        0.7494173389        1.6669941848
  N        -0.0372763860        2.9153492435        1.6670799988
  N        -1.2904499503        5.0835060984        1.6668020511
  N        -2.5407261556        7.2532801213        1.6668625378
  N        -3.7897269295        9.4229367353        1.6670570360
  N        -5.0411863895       11.5921312312        1.6669709583
  N        -3.7890465195       13.7615266137        1.6671572717
  N         3.7230347403        0.7493023917        1.6670136287
  N         2.4697100267        2.9133579131        1.6672343421
  N         1.2105466810        5.0772337019        1.6671780450
  N        -0.0443807333        7.2529697693        1.6669000938
  N        -1.2884172288        9.4243385412        1.6670736996
  N        -2.5376721527       11.5924025396        1.6673348357
  N        -1.2850044212       13.7622307626        1.6672936818
  N         6.2277124008        0.7495213411        1.6671401872
  N         4.9762705631        2.9133879238        1.6671713207
  N         3.7231181094        5.0722668267        1.6671491842
  N         2.4004279564        7.2129411440        1.6669864164
  N         1.2083742381        9.4293245399        1.6671656840
  N        -0.0356730315       11.5951985761        1.6672827718
  N         1.2190037615       13.7658418395        1.6669349692
  N         8.7330170221        0.7508374684        1.6672485273
  N         7.4828861917        2.9153157647        1.6673348098
  N         6.2353843790        5.0771338196        1.6668549363
  N         5.0462561038        7.2128226546        1.6667106756
  N         3.7232371091        9.5047516850        1.6669388999
  N         2.4675116418       11.6039785556        1.6669919371
  N         3.7229693424       13.7678747027        1.6669703440
  N        11.2363665028        0.7524599378        1.6670806681
  N         9.9861495513        2.9171206353        1.6674425275
  N         8.7362496755        5.0835501411        1.6672160734
  N         7.4904407397        7.2529661456        1.6668990216
  N         6.2380241716        9.4295865986        1.6672025956
  N         4.9785503072       11.6042766129        1.6673073162
  N         6.2268569468       13.7661096296        1.6671431399
  N        13.7375732834        0.7524997437        1.6670806962
  N        12.4869942424        2.9173721830        1.6672660595
  N        11.2367636824        5.0841717578        1.6674672750
  N         9.9865061725        7.2534397017        1.6671327096
  N         8.7345704794        9.4243436794        1.6669940243
  N         7.4817899374       11.5953202382        1.6672826105
      97
 i =        2, E =      -630.1932536998
  B         7.4765815901       14.4844085223        1.6671805575
  B        14.9887940854        1.4730798233        1.6671973916
  B        13.7377570995        3.6399017351        1.6673281499
  B        12.4869281729        5.8076642884        1.6674985323
  B        11.2337875228        7.9759859185        1.6672470373
  B         9.9787906798       10.1437303012        1.6671088546
  B         8.7265911376       12.3133542945        1.6672976324
  B        -7.5466560049       14.4848433989        1.6671818864
  B        -0.0347790200        1.4736202401        1.6671548132
  B        -1.2871465463        3.6413783990        1.6672199023
  B        -2.5371119024        5.8078615338        1.6671704875
  B        -3.7880747472        7.9759364403        1.6672372109
  B        -5.0411759592       10.1444910155        1.6671545617
  B        -6.2949856035       12.3143671355        1.6671857614
  B        -5.0410326578       14.4861715857        1.6671755540
  B         2.4705954308        1.4762916218        1.6672367397
  B         1.2174277309        3.6433350993        1.6674270692
  B        -0.0308163489        5.8105450692        1.6672197502
  B        -1.2817595961        7.9750193539        1.6671811990
  B        -2.5328975797       10.1436478579        1.6673814398
  B        -3.7871630575       12.3144178420        1.6674022846
  B        -2.5354404045       14.4848509357        1.6674106566
  B         4.9752938924        1.4762996744        1.6672498027
  B         3.7230336675        3.6458327692        1.6674495960
  B         2.4815285005        5.8204390065        1.6672793373
  B         1.2362231410        7.9799396456        1.6672383920
  B        -0.0266270839       10.1426484914        1.6674472136
  B        -1.2805760709       12.3132403690        1.6675773788
  B        -0.0307082960       14.4842594904        1.6674006736
  B         7.4804184457        1.4736592038        1.6675117562
  B         6.2283372243        3.6434010262        1.6673535362
  B         4.9645498146        5.8204807076        1.6671187009
  B         2.4771472675       10.1315045078        1.6672557646
  B         1.2228294043       12.3149232731        1.6672855865
  B         2.4727309193       14.4851104221        1.6671657634
  B         9.9849774451        1.4729945693        1.6674422899
  B         8.7328786284        3.6414762389        1.6675943629
  B         7.4767110814        5.8107173326        1.6671810686
  B         6.2101843471        7.9801625006        1.6671772567
  B         4.9694403269       10.1317625609        1.6673856894
  B         3.7230561427       12.3137726816        1.6673182756
  B         4.9732901837       14.4852651825        1.6673052005
  B        12.4870080971        1.4730837718        1.6673144228
  B        11.2361931285        3.6398778173        1.6676213873
  B         9.9830205643        5.8079628513        1.6675963308
  B         8.7278766521        7.9752326334        1.6672690463
  B         7.4729787115       10.1429494487        1.6674778641
  B         6.2232901436       12.3152463166        1.6675331633
  N         8.7306426307       13.7621270366        1.6663454359
  N        16.2401793315        0.7508921707        1.6663452239
  N        14.9865696676        2.9165502055        1.6661476455
  N        13.7364466599        5.0832996171        1.6662146889
  N        12.4867598459        7.2531816020        1.6661959059
  N        11.2349715194        9.4228623841        1.6662648073
  N         9.9828352546       11.5920513619        1.6662144604
  N        -6.2928863574       13.7615342280        1.6663630965
  N         1.2182389359        0.7493885387        1.6663427137
  N        -0.0383372510        2.9146625233        1.6662480388
  N        -1.2913998344        5.0828540435        1.6661676646
  N        -2.5409624386        7.2528998271        1.6661718291
  N        -3.7894362777        9.4228660284        1.6662332337
  N        -5.0411429127       11.5921908188        1.6662541183
  N        -3.7891879667       13.7616372618        1.6663930201
  N         3.7230296439        0.7495089452        1.6662653990
  N         2.4691675805        2.9131515854        1.6660997141
  N         1.2102305415        5.0762862920        1.6661628235
  N        -0.0443732707        7.2525535108        1.6660955812
  N        -1.2883458230        9.4233312719        1.6660136013
  N        -2.5369810891       11.5921277396        1.6662463368
  N        -1.2848380104       13.7621011225        1.6663582391
  N         6.2274695863        0.7494279027        1.6663926710
  N         4.9768634830        2.9130906790        1.6660824148
  N         3.7231395212        5.0709071305        1.6659630577
  N         2.3985219752        7.2111926876        1.6663012730
  N         1.2080732942        9.4293655014        1.6658533152
  N        -0.0347156272       11.5951159493        1.6661289797
  N         1.2194672718       13.7668980894        1.6663806849
  N         8.7332920517        0.7508155726        1.6664144964
  N         7.4838639661        2.9147306706        1.6664033563
  N         6.2356545792        5.0763007864        1.6662475567
  N         5.0481455425        7.2111638489        1.6663683903
  N         3.7233802000        9.5078061346        1.6663414775
  N         2.4676328630       11.6049499648        1.6662760052
  N         3.7230762689       13.7692739396        1.6662621657
  N        11.2366837114        0.7532314581        1.6662383654
  N         9.9871760951        2.9166399728        1.6662699856
  N         8.7371866655        5.0830663606        1.6663410371
  N         7.4906404195        7.2527788528        1.6660899464
  N         6.2385553371        9.4295713845        1.6657908276
  N         4.9785644673       11.6052587274        1.6662315740
  N         6.2264527581       13.7672281728        1.6662966418
  N        13.7373488352        0.7533065558        1.6660970505
  N        12.4870971592        2.9169790746        1.6660266090
  N        11.2374392613        5.0833972872        1.6662828443
  N         9.9867795217        7.2530505556        1.6661608994
  N         8.7345476051        9.4234566638        1.6660181184
  N         7.4808835496       11.5953768508        1.6661321718
      97
 i =        3, E =      -630.1932750744
  B         7.4764504750       14.4844334867        1.6666596390
  B        14.9888016463        1.4731190856        1.6665724661
  B        13.7378256017        3.6399091996        1.6666269091
  B        12.4869139075        5.8076646932        1.6667753277
  B        11.2338423117        7.9759655555        1.6666411514
  B         9.9791243920       10.1437734178        1.6665108141
  B         8.7268085391       12.3133969480        1.6667292808
  B        -7.5466118307       14.4846468663        1.6667073736
  B        -0.0349219380        1.4736095416        1.6666841228
  B        -1.2871650127        3.6412580415        1.6666946667
  B        -2.5370995127        5.8076857327        1.6666057538
  B        -3.7880438149        7.9759074160        1.6667162873
  B        -5.0411175485       10.1445935816        1.6666398555
  B        -6.2948133680       12.3142396858        1.6667073418
  B        -5.0410229512       14.4857188026        1.6666769935
  B         2.4705487709        1.4758639204        1.6666446182
  B         1.2172807460        3.6433400743        1.6667054888
  B        -0.0309081095        5.8102821923        1.6665928323
  B        -1.2817274761        7.9748103912        1.6665194171
  B        -2.5331524552       10.1437072837        1.6666579500
  B        -3.7872363816       12.3143057613        1.6668172852
  B        -2.5354585785       14.4846148547        1.6667984832
  B         4.9753787901        1.4758384284        1.6666113572
  B         3.7230662215        3.6454819420        1.6666475524
  B         2.4815632119        5.8209405554        1.6667972072
  B         1.2366387454        7.9797227195        1.6667464556
  B        -0.0269056201       10.1427563990        1.6666139083
  B        -1.2807466392       12.3132878373        1.6668668247
  B        -0.0305745143       14.4842865720        1.6668584596
  B         7.4805573628        1.4736244794        1.6669044174
  B         6.2285210535        3.6433865166        1.6667512545
  B         4.9645059257        5.8210591842        1.6666692973
  B         2.4774640822       10.1313747824        1.6667401713
  B         1.2230364273       12.3149698493        1.6666831374
  B         2.4728093316       14.4851635517        1.6666004467
  B         9.9849669498        1.4730390356        1.6667664886
  B         8.7329365369        3.6413665547        1.6668957347
  B         7.4767855674        5.8104564539        1.6665676700
  B         6.2097317801        7.9799012083        1.6666775088
  B         4.9691007259       10.1315711124        1.6668707838
  B         3.7230762736       12.3138852461        1.6667120272
  B         4.9732464599       14.4853414788        1.6667399479
  B        12.4869920594        1.4731524684        1.6666091175
  B        11.2361346248        3.6399134137        1.6667915866
  B         9.9829957772        5.8078240068        1.6669086283
  B         8.7278974518        7.9750333032        1.6666291292
  B         7.4732620904       10.1430614267        1.6665963808
  B         6.2230556991       12.3152811712        1.6667928362
  N         8.7305282908       13.7621995682        1.6668630048
  N        16.2401620471        0.7508012096        1.6669164582
  N        14.9866131640        2.9165115881        1.6668363582
  N        13.7363663752        5.0833515281        1.6669011831
  N        12.4868051062        7.2532118996        1.6668367545
  N        11.2352086915        9.4227536604        1.6668907641
  N         9.9829638213       11.5920344799        1.6668120592
  N        -6.2929802975       13.7613252578        1.6668561863
  N         1.2179769365        0.7491494685        1.6668614461
  N        -0.0384030309        2.9145042554        1.6668201837
  N        -1.2915069756        5.0826377115        1.6668073524
  N        -2.5410784544        7.2527577024        1.6668015773
  N        -3.7895670874        9.4227413177        1.6668230970
  N        -5.0410878523       11.5920927446        1.6668210455
  N        -3.7890830192       13.7614462439        1.6669525113
  N         3.7230418793        0.7490342188        1.6669352213
  N         2.4689554693        2.9127466855        1.6668706233
  N         1.2103643473        5.0762399731        1.6667963214
  N        -0.0442611682        7.2524281330        1.6667770920
  N        -1.2886983134        9.4232327683        1.6669216252
  N        -2.5370241050       11.5921081404        1.6669150490
  N        -1.2846866047       13.7621666568        1.6669594595
  N         6.2277538048        0.7491367851        1.6670034468
  N         4.9771176280        2.9126488115        1.6668731469
  N         3.7231568243        5.0706860247        1.6667139082
  N         2.3994987975        7.2117722398        1.6666062649
  N         1.2079004409        9.4295105725        1.6666998879
  N        -0.0347670247       11.5954156217        1.6668807953
  N         1.2194921122       13.7669529611        1.6669659914
  N         8.7333159437        0.7507145337        1.6670037540
  N         7.4839726058        2.9145488223        1.6669932182
  N         6.2354658835        5.0762528176        1.6668655248
  N         5.0469875722        7.2118570072        1.6666936950
  N         3.7233490811        9.5073031335        1.6666514261
  N         2.4676922467       11.6049575268        1.6668793911
  N         3.7231084501       13.7693282293        1.6669078685
  N        11.2365941556        0.7532122602        1.6669533045
  N         9.9871829520        2.9165927059        1.6670056120
  N         8.7372938074        5.0828713381        1.6670022897
  N         7.4905635783        7.2526718425        1.6667884281
  N         6.2387367683        9.4296734040        1.6666783830
  N         4.9785071676       11.6052152142        1.6668488406
  N         6.2264456089       13.7672756953        1.6669036749
  N        13.7374217313        0.7533164827        1.6668424149
  N        12.4870872849        2.9171176968        1.6669250153
  N        11.2374954614        5.0834564947        1.6669921598
  N         9.9869775515        7.2529476663        1.6668295742
  N         8.7349429232        9.4233918765        1.6669005696
  N         7.4809514541       11.5957120095        1.6668919566
      97
 i =        4, E =      -630.1932750734
  B         7.4764504750       14.4844334867        1.6666596390
  B        14.9888016463        1.4731190856        1.6665724661
  B        13.7378256017        3.6399091996        1.6666269091
  B        12.4869139075        5.8076646932        1.6667753277
  B        11.2338423117        7.9759655555        1.6666411514
  B         9.9791243920       10.1437734178        1.6665108141
  B         8.7268085391       12.3133969480        1.6667292808
  B        -7.5466118307       14.4846468663        1.6667073736
  B        -0.0349219380        1.4736095416        1.6666841228
  B        -1.2871650127        3.6412580415        1.6666946667
  B        -2.5370995127        5.8076857327        1.6666057538
  B        -3.7880438149        7.9759074160        1.6667162873
  B        -5.0411175485       10.1445935816        1.6666398555
  B        -6.2948133680       12.3142396858        1.6667073418
  B        -5.0410229512       14.4857188026        1.6666769935
  B         2.4705487709        1.4758639204        1.6666446182
  B         1.2172807460        3.6433400743        1.6667054888
  B        -0.0309081095        5.8102821923        1.6665928323
  B        -1.2817274761        7.9748103912        1.6665194171
  B        -2.5331524552       10.1437072837        1.6666579500
  B        -3.7872363816       12.3143057613        1.6668172852
  B        -2.5354585785       14.4846148547        1.6667984832
  B         4.9753787901        1.4758384284        1.6666113572
  B         3.7230662215        3.6454819420        1.6666475524
  B         2.4815632119        5.8209405554        1.6667972072
  B         1.2366387454        7.9797227195        1.6667464556
  B        -0.0269056201       10.1427563990        1.6666139083
  B        -1.2807466392       12.3132878373        1.6668668247
  B        -0.0305745143       14.4842865720        1.6668584596
  B         7.4805573628        1.4736244794        1.6669044174
  B         6.2285210535        3.6433865166        1.6667512545
  B         4.9645059257        5.8210591842        1.6666692973
  B         2.4774640822       10.1313747824        1.6667401713
  B         1.2230364273       12.3149698493        1.6666831374
  B         2.4728093316       14.4851635517        1.6666004467
  B         9.9849669498        1.4730390356        1.6667664886
  B         8.7329365369        3.6413665547        1.6668957347
  B         7.4767855674        5.8104564539        1.6665676700
  B         6.2097317801        7.9799012083        1.6666775088
  B         4.9691007259       10.1315711124        1.6668707838
  B         3.7230762736       12.3138852461        1.6667120272
  B         4.9732464599       14.4853414788        1.6667399479
  B        12.4869920594        1.4731524684        1.6666091175
  B        11.2361346248        3.6399134137        1.6667915866
  B         9.9829957772        5.8078240068        1.6669086283
  B         8.7278974518        7.9750333032        1.6666291292
  B         7.4732620904       10.1430614267        1.6665963808
  B         6.2230556991       12.3152811712        1.6667928362
  N         8.7305282908       13.7621995682        1.6668630048
  N        16.2401620471        0.7508012096        1.6669164582
  N        14.9866131640        2.9165115881        1.6668363582
  N        13.7363663752        5.0833515281        1.6669011831
  N        12.4868051062        7.2532118996        1.6668367545
  N        11.2352086915        9.4227536604        1.6668907641
  N         9.9829638213       11.5920344799        1.6668120592
  N        -6.2929802975       13.7613252578        1.6668561863
  N         1.2179769365        0.7491494685        1.6668614461
  N        -0.0384030309        2.9145042554        1.6668201837
  N        -1.2915069756        5.0826377115        1.6668073524
  N        -2.5410784544        7.2527577024        1.6668015773
  N        -3.7895670874        9.4227413177        1.6668230970
  N        -5.0410878523       11.5920927446        1.6668210455
  N        -3.7890830192       13.7614462439        1.6669525113
  N         3.7230418793        0.7490342188        1.6669352213
  N         2.4689554693        2.9127466855        1.6668706233
  N         1.2103643473        5.0762399731        1.6667963214
  N        -0.0442611682        7.2524281330        1.6667770920
  N        -1.2886983134        9.4232327683        1.6669216252
  N        -2.5370241050       11.5921081404        1.6669150490
  N        -1.2846866047       13.7621666568        1.6669594595
  N         6.2277538048        0.7491367851        1.6670034468
  N         4.9771176280        2.9126488115        1.6668731469
  N         3.7231568243        5.0706860247        1.6667139082
  N         2.3994987975        7.2117722398        1.6666062649
  N         1.2079004409        9.4295105725        1.6666998879
  N        -0.0347670247       11.5954156217        1.6668807953
  N         1.2194921122       13.7669529611        1.6669659914
  N         8.7333159437        0.7507145337        1.6670037540
  N         7.4839726058        2.9145488223        1.6669932182
  N         6.2354658835        5.0762528176        1.6668655248
  N         5.0469875722        7.2118570072        1.6666936950
  N         3.7233490811        9.5073031335        1.6666514261
  N         2.4676922467       11.6049575268        1.6668793911
  N         3.7231084501       13.7693282293        1.6669078685
  N        11.2365941556        0.7532122602        1.6669533045
  N         9.9871829520        2.9165927059        1.6670056120
  N         8.7372938074        5.0828713381        1.6670022897
  N         7.4905635783        7.2526718425        1.6667884281
  N         6.2387367683        9.4296734040        1.6666783830
  N         4.9785071676       11.6052152142        1.6668488406
  N         6.2264456089       13.7672756953        1.6669036749
  N        13.7374217313        0.7533164827        1.6668424149
  N        12.4870872849        2.9171176968        1.6669250153
  N        11.2374954614        5.0834564947        1.6669921598
  N         9.9869775515        7.2529476663        1.6668295742
  N         8.7349429232        9.4233918765        1.6669005696
  N         7.4809514541       11.5957120095        1.6668919566
